[General]
network = Project_Group_10
sim-time-limit = 10h

**.C = 100
**.N = 20
**.T = 5
**.R = 5
**.D = 2.5
**.Icont = 1
**.Ifaas = 0.1
**.K = 4
**.P = 0.5

repeat = 20
seed-set = ${repetition}

num-rngs = 4
**.rng-0 = 0
**.rng-1 = 1
**.rng-2 = 2
**.rng-3 = 3



[Config Degeneracy-Test]
sim-time-limit = 2h
# The parameters below have baseline values.
# The commented ranges indicate alternative values used for sensitivity analysis.
# During the simulations, only one parameter is varied at a time while all others
# remain at their baseline value.
**.C = 100 # 0 1000
**.N = 20 # 0 1 100
**.T = 5 # 0 1 100
**.R = 5 # 0 1000
**.D = 2.5 # 0 1000
**.Icont = 1 # 0 1000
**.Ifaas = 0.1 # 0 1000
**.K = 4 # 0 1000
**.P = 0.5 # 0 1


[Config Theoretical-Test]
# With these parameters we tested the M/M/C model
# It was changed also a line in the code in the Single_User.cc
# this: double R=uniform(0.5*R_,R_*1.5,0);
# became this: double R=R_;
# So that when utilization is at 1 the number of jobs executing is exactly 40

**.C = 40
**.N = 64
**.T = 10
**.R = 1
**.D = 5
**.Icont = 0
**.Ifaas = 0
**.K = 1
**.P = 0


[Config Consistency-Test]
# In this test we doubled both T and D
# If the results are almost the same the test is passed
sim-time-limit = 2h

**.C = 100
**.N = 20
**.R = 5
**.Icont = 0
**.Ifaas = 0
**.K = 4
**.P = 0.5

[Config Consistency-Test-1]
extends = Consistency-Test

**.T = 5
**.D = 2.5

[Config Consistency-Test-2]
extends = Consistency-Test

**.T = 10
**.D = 5


[Config Continuity-Test]
# In this test we slightly changed N
# If the results in the second case are slightly higher the test is passed
sim-time-limit = 2h

**.C = 40
**.T = 10
**.R = 1
**.D = 3
**.Icont = 1
**.Ifaas = 0.1
**.K = 6
**.P = 0.5

[Config Continuity-Test-1]
extends = Continuity-Test

**.N = 64

[Config Continuity-Test-2]
extends = Continuity-Test

**.N = 65

[Config warmup-Test]
sim-time-limit = 10000s
warmup-period = 0s

**.C = 40
**.N = 70
**.T = 10
**.R = 1
**.D = 4
**.Icont = 1
**.Ifaas = 0.1
**.K = 5
**.P = 0.5

repeat = 25

[Config Simulation-Test]
# This configuration runs the actual system simulation by varying
# the parameters N, K, and P in order to collect performance metrics
# and analyze the system behavior under different operating conditions.
sim-time-limit = 10h
warmup-period = 500s

**.C = 40
**.N = ${20, 25, 30, 35, 40, 45, 50, 55, 60, 65, 70, 75, 80, 85, 90}
**.T = 10
**.R = 1
**.D = 4
**.Icont = 0.8
**.Ifaas = 0.125
**.K = ${2, 3, 4, 5, 6, 7, 8}
**.P = ${0.25, 0.5, 0.75}

repeat = 50


# Additional simulation tests.
# Two further tests are performed by varying the same parameters (N, K, and P),
# using a smaller range of N values with a finer granularity. This allows
# collecting a larger number of data points, enabling more detailed plots
# and a more accurate analysis of the system behavior.
[Config Simulation-Test-2]
sim-time-limit = 10h
warmup-period = 500s

**.C = 40
**.N = ${61, 62, 63, 64, 66, 67, 68, 69, 71, 72, 73, 74, 76, 77, 78, 79, 81, 82, 83, 84}
**.T = 10
**.R = 1
**.D = 4
**.Icont = 0.8
**.Ifaas = 0.125
**.K = ${2, 3, 4, 5, 6, 7, 8}
**.P = ${0.75}

repeat = 50

[Config Simulation-Test-3]
sim-time-limit = 10h
warmup-period = 500s

**.C = 40
**.N = ${61, 62, 63, 64, 66, 67, 68, 69, 71, 72, 73, 74, 76, 77, 78, 79}
**.T = 10
**.R = 1
**.D = 4
**.Icont = 0.8
**.Ifaas = 0.125
**.K = ${2, 3, 4, 5, 6, 7, 8}
**.P = ${0.25}

repeat = 50
